ipss.editor/workspace/custom/ieee300.psse
0    100.00          / WED AUG 05, 1992  14:31
 13/05/91 CYME INTERNATIONAL    100.0 1991 S                
 IEEE 300-BUS TEST SYSTEM                                   
    1 1   90.000   49.000    0.000    0.000   1 1.02691    6.5238 ' 1      ' 115.00   1
    2 1   56.000   15.000    0.000    0.000   1 1.03396    8.2812 ' 1      ' 115.00   1
    3 1   20.000    0.000    0.000    0.000   1 0.99357    7.2240 ' 1      ' 230.00   1
    4 1    0.000    0.000    0.000    0.000   1 1.02717    5.2129 ' 1      ' 345.00   1
    5 1  353.000  130.000    0.000    0.000   1 1.01738    5.2547 ' 1      ' 115.00   1
    6 1  120.000   41.000    0.000    0.000   1 1.02944    7.5431 ' 1      ' 115.00   1
    7 1    0.000    0.000    0.000    0.000   1 0.99006    6.7850 ' 1      ' 230.00   1
    8 2   58.000   14.000    0.000    0.000   1 1.01365    2.8701 ' 1      ' 115.00   1
    9 1   96.000   43.000    0.000    0.000   1 1.00205    3.3950 ' 1      ' 115.00   1
   10 2  148.000   33.000    0.000    0.000   1 1.01857    1.8848 ' 1      ' 230.00   1
   11 1   83.000   21.000    0.000    0.000   1 1.00472    2.9818 ' 1      ' 115.00   1
   12 1    0.000    0.000    0.000    0.000   1 0.99501    5.7822 ' 1      ' 230.00   1
   13 1   58.000   10.000    0.000    0.000   1 0.99629   -0.0379 ' 1      ' 115.00   1
   14 1  160.000   60.000    0.000    0.000   1 0.99683   -4.4901 ' 1      ' 115.00   1
   15 1  126.700   23.000    0.000    0.000   1 1.03191   -8.3974 ' 1      ' 115.00   1
   16 1    0.000    0.000    0.000    0.000   1 1.02834   -2.4496 ' 1      ' 345.00   1
   17 1  561.000  220.000    0.000    0.000   1 1.06272  -12.9516 ' 1      ' 115.00   1
   19 1    0.000    0.000    0.000    0.000   1 0.97966    1.5734 ' 1      ' 230.00   1
   20 2  595.000  120.000    0.000    0.000   1 0.99919   -1.9496 ' 1      ' 115.00   1
   21 1   77.000    1.000    0.000    0.000   1 0.97322    2.1445 ' 1      ' 230.00   1
   22 1   81.000   23.000    0.000    0.000   1 0.99476   -1.4648 ' 1      ' 115.00   1
   23 1   21.000    7.000    0.000    0.000   1 1.04967    4.4466 ' 1      ' 115.00   1
   24 1    0.000    0.000    0.000    0.000   1 1.00486    6.5415 ' 1      ' 230.00   1
   25 1   45.000   12.000    0.000    0.000   1 1.02277    1.9469 ' 1      ' 115.00   1
   26 1   28.000    9.000    0.000    0.000   1 0.99772   -1.2286 ' 1      ' 115.00   1
   27 1   69.000   13.000    0.000    0.000   1 0.97375   -4.3950 ' 1      ' 115.00   1
   33 1   55.000    6.000    0.000    0.000   1 1.02328  -12.1657 ' 1      ' 115.00   1
   34 1    0.000    0.000    0.000    0.000   1 1.03969   -8.0650 ' 1      ' 345.00   1
   35 1    0.000    0.000    0.000    0.000   1 0.97562  -26.1755 ' 1      ' 115.00   1
   36 1    0.000    0.000    0.000    0.000   1 1.00098  -23.0388 ' 1      ' 230.00   1
   37 1   85.000   32.000    0.000    0.000   1 1.01898  -11.3242 ' 1      ' 115.00   1
   38 1  155.000   18.000    0.000    0.000   1 1.01910  -12.7125 ' 1      ' 115.00   1
   39 1    0.000    0.000    0.000    0.000   1 1.05210   -5.9329 ' 1      ' 345.00   1
   40 1   46.000  -21.000    0.000    0.000   1 1.02046  -12.9062 ' 1      ' 115.00   1
   41 1   86.000    0.000    0.000    0.000   1 1.02794  -10.5794 ' 1      ' 115.00   1
   42 1    0.000    0.000    0.000    0.000   1 1.04314   -7.5701 ' 1      ' 345.00   1
   43 1   39.000    9.000    0.000    0.000   1 1.00010  -17.1758 ' 1      ' 115.00   1
   44 1  195.000   29.000    0.000    0.000   1 1.00863  -17.9991 ' 1      ' 115.00   1
   45 1    0.000    0.000    0.000    0.000   1 1.02187  -15.3086 ' 1      ' 230.00   1
   46 1    0.000    0.000    0.000    0.000   1 1.03308  -12.0809 ' 1      ' 345.00   1
   47 1   58.000   11.800    0.000    0.000   1 0.97786  -23.6373 ' 1      ' 115.00   1
   48 1   41.000   19.000    0.000    0.000   1 1.00132  -16.2357 ' 1      ' 115.00   1
   49 1   92.000   26.000    0.000    0.000   1 1.04729   -2.9856 ' 1      ' 115.00   1
   51 1   -5.000    5.000    0.000    0.000   1 1.02450   -8.3637 ' 1      ' 115.00   1
   52 1   61.000   28.000    0.000    0.000   1 0.99754  -12.3966 ' 1      ' 115.00   1
   53 1   69.000    3.000    0.000    0.000   1 0.99561  -18.0559 ' 1      ' 115.00   1
   54 1   10.000    1.000    0.000    0.000   1 1.00507  -16.8182 ' 1      ' 115.00   1
   55 1   22.000   10.000    0.000    0.000   1 1.01535  -12.9832 ' 1      ' 115.00   1
   57 1   98.000   20.000    0.000    0.000   1 1.03380   -9.5875 ' 1      ' 115.00   1
   58 1   14.000    1.000    0.000    0.000   1 0.99148   -7.9330 ' 1      ' 115.00   1
   59 1  218.000  106.000    0.000    0.000   1 0.97860   -7.3379 ' 1      ' 115.00   1
   60 1    0.000    0.000    0.000    0.000   1 1.02657  -10.8000 ' 1      ' 230.00   1
   61 1  227.000  110.000    0.000    0.000   1 0.99057   -5.5703 ' 1      ' 115.00   1
   62 1    0.000    0.000    0.000    0.000   1 1.01683   -3.4126 ' 1      ' 230.00   1
   63 2   70.000   30.000    0.000    0.000   1 0.95830  -19.7737 ' 1      ' 115.00   1
   64 1    0.000    0.000    0.000    0.000   1 0.94840  -15.1614 ' 1      ' 230.00   1
   69 1    0.000    0.000    0.000    0.000   1 0.96297  -26.0941 ' 1      ' 115.00   1
   70 1   56.000   20.000    0.000    0.000   1 0.95125  -35.6184 ' 1      ' 115.00   1
   71 1  116.000   38.000    0.000    0.000   1 0.97933  -30.3386 ' 1      ' 115.00   1
   72 1   57.000   19.000    0.000    0.000   1 0.96955  -27.9313 ' 1      ' 115.00   1
   73 1  224.000   71.000    0.000    0.000   1 0.97749  -26.2322 ' 1      ' 115.00   1
   74 1    0.000    0.000    0.000    0.000   1 0.99646  -22.4763 ' 1      ' 230.00   1
   76 2  208.000  107.000    0.000    0.000   1 0.96319  -26.9961 ' 1      ' 115.00   1
   77 1   74.000   28.000    0.000    0.000   1 0.98374  -25.3928 ' 1      ' 115.00   1
   78 1    0.000    0.000    0.000    0.000   1 0.98996  -24.5023 ' 1      ' 115.00   1
   79 1   48.000   14.000    0.000    0.000   1 0.98196  -25.4262 ' 1      ' 115.00   1
   80 1   28.000    7.000    0.000    0.000   1 0.98717  -25.4132 ' 1      ' 115.00   1
   81 1    0.000    0.000    0.000    0.000   1 1.03353  -19.3009 ' 1      ' 345.00   1
   84 2   37.000   13.000    0.000    0.000   1 1.02500  -17.6151 ' 1      ' 115.00   1
   85 1    0.000    0.000    0.000    0.000   1 0.98671  -17.6573 ' 1      ' 230.00   1
   86 1    0.000    0.000    0.000    0.000   1 0.99009  -14.0947 ' 1      ' 230.00   1
   87 1    0.000    0.000    0.000    0.000   1 0.99033   -7.5071 ' 1      ' 230.00   1
   88 1    0.000    0.000    0.000    0.000   1 1.01494  -21.4001 ' 1      ' 230.00   1
   89 1   44.200    0.000    0.000    0.000   1 1.03079  -11.0760 ' 1      ' 115.00   1
   90 1   66.000    0.000    0.000    0.000   1 1.02628  -11.2586 ' 1      ' 115.00   1
   91 2   17.400    0.000    0.000    0.000   1 1.05200   -9.3327 ' 1      ' 115.00   1
   92 2   15.800    0.000    0.000    0.000   1 1.05200   -6.2343 ' 1      ' 115.00   1
   94 1   60.300    0.000    0.000    0.000   1 0.99185   -9.1983 ' 1      ' 115.00   1
   97 1   39.900    0.000    0.000    0.000   1 1.01802  -13.1793 ' 1      ' 115.00   1
   98 2   66.700    0.000    0.000    0.000   1 1.00000  -14.5472 ' 1      ' 115.00   1
   99 1   83.500    0.000    0.000    0.000   1 0.98933  -20.2973 ' 1      ' 115.00   1
  100 1    0.000    0.000    0.000    0.000   1 1.00582  -14.3849 ' 1      ' 115.00   1
  102 1   77.800    0.000    0.000    0.000   1 1.00046  -15.1657 ' 1      ' 115.00   1
  103 1   32.000    0.000    0.000    0.000   1 1.02856  -12.0820 ' 1      ' 115.00   1
  104 1    8.600    0.000    0.000    0.000   1 0.99554  -17.2919 ' 1      ' 115.00   1
  105 1   49.600    0.000    0.000    0.000   1 1.02205  -12.9881 ' 1      ' 115.00   1
  107 1    4.600    0.000    0.000    0.000   1 1.00917  -16.1137 ' 1      ' 115.00   1
  108 2  112.100    0.000    0.000    0.000   1 0.99000  -20.2858 ' 1      ' 115.00   1
  109 1   30.700    0.000    0.000    0.000   1 0.97488  -26.2467 ' 1      ' 115.00   1
  110 1   63.000    0.000    0.000    0.000   1 0.97286  -24.8312 ' 1      ' 115.00   1
  112 1   19.600    0.000    0.000    0.000   1 0.97255  -28.9085 ' 1      ' 115.00   1
  113 1   26.200    0.000    0.000    0.000   1 0.97012  -25.7653 ' 1      ' 115.00   1
  114 1   18.200    0.000    0.000    0.000   1 0.97472  -28.8141 ' 1      ' 115.00   1
  115 1    0.000    0.000    0.000    0.000   2 0.90038   12.1838 ' 2      ' 115.00   2
  116 1    0.000    0.000    0.000    0.000   2 0.98336   18.6278 ' 2      ' 115.00   2
  117 1    0.000    0.000    0.000  325.000   2 0.90620   25.4455 ' 2      ' 115.00   2
  118 1   14.100  650.000    0.000    0.000   2 0.90151   26.5957 ' 2      ' 115.00   2
  119 2    0.000    0.000    0.000    0.000   2 1.04350   41.5391 ' 2      ' 115.00   2
  120 1    0.000    0.000    0.000   55.000   2 1.00716   36.7372 ' 2      ' 115.00   2
  121 1  535.000   55.000    0.000    0.000   2 0.86969   15.8859 ' 2      ' 115.00   2
  122 1  229.100   11.800    0.000    0.000   2 0.88430    9.5710 ' 2      ' 115.00   2
  123 1   78.000    1.400    0.000    0.000   2 0.91738    4.1970 ' 2      ' 115.00   2
  124 2  276.400   59.300    0.000    0.000   2 0.96485   15.4226 ' 2      ' 115.00   2
  125 2  514.800   82.700    0.000    0.000   2 0.94048   -6.2573 ' 2      ' 115.00   2
  126 1   57.900    5.100    0.000    0.000   2 0.93913   -1.4990 ' 2      ' 115.00   2
  127 1  380.800   37.000    0.000    0.000   2 0.97398   -7.1681 ' 2      ' 230.00   2
  128 1    0.000    0.000    0.000    0.000   2 0.98877   -5.1305 ' 2      ' 230.00   2
  129 1    0.000    0.000    0.000    0.000   2 0.98640   -4.2696 ' 2      ' 230.00   2
  130 1    0.000    0.000    0.000    0.000   2 1.01196    6.3835 ' 2      ' 230.00   2
  131 1    0.000    0.000    0.000    0.000   2 0.98194    6.7217 ' 2      ' 230.00   2
  132 1    0.000    0.000    0.000    0.000   2 0.99577    4.6631 ' 2      ' 230.00   2
  133 1    0.000    0.000    0.000    0.000   2 0.99028   -7.3761 ' 2      ' 230.00   2
  134 1    0.000    0.000    0.000    0.000   2 1.00976   -6.3778 ' 2      ' 230.00   2
  135 1  169.200   41.600    0.000    0.000   2 1.01243   -6.5175 ' 2      ' 230.00   2
  136 1   55.200   18.200    0.000    0.000   2 1.04568   -1.1537 ' 2      ' 230.00   2
  137 1  273.600   99.800    0.000    0.000   2 1.04236   -7.4207 ' 2      ' 230.00   2
  138 2  826.700  135.200    0.000    0.000   2 1.05138  -16.8778 ' 2      ' 230.00   2
  139 1  595.000   83.300    0.000    0.000   2 1.01032   -9.3270 ' 2      ' 115.00   2
  140 1  387.700  114.700    0.000    0.000   2 1.03975   -9.2066 ' 2      ' 230.00   2
  141 2  145.000   58.000    0.000    0.000   2 1.05100   -5.5010 ' 2      ' 230.00   2
  142 1   56.500   24.500    0.000    0.000   2 1.01368   -7.5335 ' 2      ' 230.00   2
  143 2   89.500   35.500    0.000    0.000   2 1.04350   -0.1865 ' 2      ' 230.00   2
  144 1    0.000    0.000    0.000    0.000   2 1.01667   -3.1588 ' 2      ' 230.00   2
  145 1   24.000   14.000    0.000    0.000   2 1.00755   -4.8584 ' 2      ' 230.00   2
  146 2    0.000    0.000    0.000    0.000   2 1.05237   -0.7483 ' 2      ' 230.00   2
  147 2    0.000    0.000    0.000    0.000   2 1.05280    3.2064 ' 2      ' 230.00   2
  148 1   63.000   25.000    0.000    0.000   2 1.05765   -4.0330 ' 2      ' 230.00   2
  149 2    0.000    0.000    0.000    0.000   2 1.07317    0.8350 ' 2      ' 230.00   2
  150 1    0.000    0.000    0.000    0.000   2 0.98244    7.0074 ' 2      ' 230.00   2
  151 1    0.000    0.000    0.000    0.000   2 0.99759    5.0623 ' 2      ' 230.00   2
  152 2   17.000    9.000    0.000    0.000   2 1.05350    6.1683 ' 2      ' 230.00   2
  153 2    0.000    0.000    0.000    0.000   2 1.04350    6.4472 ' 2      ' 230.00   2
  154 1   70.000    5.000    0.000   34.500   2 0.96518   -6.2220 ' 2      ' 115.00   2
  155 1  200.000   50.000    0.000    0.000   2 1.01430    1.9702 ' 2      ' 230.00   2
  156 2   75.000   50.000    0.000    0.000   2 0.95969    0.3824 ' 2      ' 115.00   2
  157 1  123.500  -24.300    0.000    0.000   2 0.90469   11.2483 ' 2      ' 230.00   2
  158 1    0.000    0.000    0.000    0.000   2 0.91675   10.6271 ' 2      ' 230.00   2
  159 1   33.000   16.500    0.000    0.000   2 0.89561   15.6088 ' 2      ' 230.00   2
  160 1    0.000    0.000    0.000    0.000   2 0.93393   13.2201 ' 2      ' 230.00   2
  161 1   35.000   15.000    0.000    0.000   2 1.03471    4.5791 ' 2      ' 230.00   2
  162 1   85.000   24.000    0.000    0.000   2 0.98952   13.5561 ' 2      ' 230.00   2
  163 1    0.000    0.400    0.000    0.000   2 1.03567   -2.6613 ' 2      ' 230.00   2
  164 1    0.000    0.000    0.000 -212.000   2 0.98045    4.6699 ' 2      ' 230.00   2
  165 1    0.000    0.000    0.000    0.000   2 0.99896   21.3878 ' 2      ' 230.00   2
  166 1    0.000    0.000    0.000 -103.000   2 0.99656   25.3067 ' 2      ' 230.00   2
  167 1  299.900   95.700    0.000    0.000   2 0.95491   -6.8576 ' 2      ' 230.00   2
  168 1    0.000    0.000    0.000    0.000   2 0.98879   -5.1564 ' 2      ' 230.00   2
  169 1    0.000    0.000    0.000    0.000   2 0.97023   -6.7272 ' 2      ' 230.00   2
  170 2  481.800  205.000    0.000    0.000   2 0.92110    1.3008 ' 2      ' 115.00   2
  171 2  763.600  291.100    0.000    0.000   2 0.97086  -11.9603 ' 2      ' 115.00   2
  172 1   26.500    0.000    0.000    0.000   2 1.02385  -11.7747 ' 2      ' 115.00   2
  173 1  163.500   43.000    0.000   53.000   2 0.98230  -17.9418 ' 2      ' 115.00   2
  174 1    0.000    0.000    0.000    0.000   2 1.06196   -8.2004 ' 2      ' 115.00   2
  175 1  176.000   83.000    0.000    0.000   2 0.97144  -12.0119 ' 2      ' 115.00   2
  176 2    5.000    4.000    0.000    0.000   2 1.05220   -0.1263 ' 2      ' 115.00   2
  177 2   28.000   12.000    0.000    0.000   2 1.00754   -4.1010 ' 2      ' 115.00   2
  178 1  427.400  173.600    0.000    0.000   2 0.93915  -11.2087 ' 2      ' 115.00   2
  179 1   74.000   29.000    0.000   45.000   2 0.96871  -13.9817 ' 2      ' 115.00   2
  180 1   69.500   49.300    0.000    0.000   2 0.97872   -7.7736 ' 2      ' 115.00   2
  181 1   73.400    0.000    0.000    0.000   2 1.04654   -7.9432 ' 2      ' 230.00   2
  182 1  240.700   89.000    0.000    0.000   2 1.04206   -9.9611 ' 2      ' 230.00   2
  183 1   40.000    4.000    0.000    0.000   2 0.97143    3.0394 ' 2      ' 115.00   2
  184 1  136.800   16.600    0.000    0.000   2 1.03375   -5.2037 ' 2      ' 230.00   2
  185 2    0.000    0.000    0.000    0.000   2 1.05220   -2.7048 ' 2      ' 230.00   2
  186 2   59.800   24.300    0.000    0.000   2 1.06500   -4.1761 ' 2      ' 230.00   2
  187 2   59.800   24.300    0.000    0.000   2 1.06500   -5.1977 ' 2      ' 230.00   2
  188 1  182.600   43.600    0.000    0.000   2 1.04900   -7.2833 ' 2      ' 230.00   2
  189 1    7.000    2.000    0.000    0.000   3 0.99753  -26.2469 ' 3      ' 66.000   3
  190 2    0.000    0.000    0.000 -150.000   3 1.05510  -21.0473 ' 3      ' 345.00   3
  191 2  489.000   53.000    0.000    0.000   3 1.04350   11.8201 ' 3      ' 230.00   3
  192 1  800.000   72.000    0.000    0.000   3 0.93745  -11.6093 ' 3      ' 230.00   3
  193 1    0.000    0.000    0.000    0.000   3 0.98963  -26.4884 ' 3      ' 66.000   3
  194 1    0.000    0.000    0.000    0.000   3 1.04865  -19.6346 ' 3      ' 345.00   3
  195 1    0.000    0.000    0.000    0.000   3 1.03556  -21.2119 ' 3      ' 345.00   3
  196 1   10.000    3.000    0.000    0.000   3 0.96947  -25.7352 ' 3      ' 115.00   3
  197 1   43.000   14.000    0.000    0.000   3 0.99067  -24.1380 ' 3      ' 115.00   3
  198 2   64.000   21.000    0.000    0.000   3 1.01500  -21.0044 ' 3      ' 115.00   3
  199 1   35.000   12.000    0.000    0.000   3 0.95284  -26.4636 ' 3      ' 115.00   3
  200 1   27.000   12.000    0.000    0.000   3 0.95508  -26.3533 ' 3      ' 115.00   3
  201 1   41.000   14.000    0.000    0.000   1 0.96910  -27.9131 ' 1      ' 66.000   1
  202 1   38.000   13.000    0.000    0.000   3 0.99081  -25.7554 ' 3      ' 66.000   3
  203 1   42.000   14.000    0.000    0.000   3 1.00331  -22.7732 ' 3      ' 115.00   3
  204 1   72.000   24.000    0.000    0.000   3 0.97174  -26.1061 ' 3      ' 66.000   3
  205 1    0.000   -5.000    0.000    0.000   3 0.98376  -26.4613 ' 3      ' 66.000   3
  206 1   12.000    2.000    0.000    0.000   3 0.99938  -27.7209 ' 3      ' 66.000   3
  207 1  -21.000  -14.200    0.000    0.000   1 1.01412  -27.7164 ' 1      ' 66.000   1
  208 1    7.000    2.000    0.000    0.000   3 0.99283  -26.6673 ' 3      ' 66.000   3
  209 1   38.000   13.000    0.000    0.000   3 0.99991  -26.0629 ' 3      ' 66.000   3
  210 1    0.000    0.000    0.000    0.000   3 0.97881  -24.6376 ' 3      ' 115.00   3
  211 1   96.000    7.000    0.000    0.000   3 1.00161  -23.7388 ' 3      ' 115.00   3
  212 1    0.000    0.000    0.000    0.000   3 1.01311  -22.9319 ' 3      ' 138.00   3
  213 2    0.000    0.000    0.000    0.000   3 1.01000  -12.1002 ' 3      ' 16.500   3
  214 1   22.000   16.000    0.000    0.000   3 0.99187  -17.9589 ' 3      ' 138.00   3
  215 1   47.000   26.000    0.000    0.000   3 0.98662  -20.6596 ' 3      ' 138.00   3
  216 1  176.000  105.000    0.000    0.000   3 0.97513  -22.9561 ' 3      ' 138.00   3
  217 1  100.000   75.000    0.000    0.000   3 1.02149  -22.6263 ' 3      ' 138.00   3
  218 1  131.000   96.000    0.000    0.000   3 1.00751  -23.0555 ' 3      ' 138.00   3
  219 1    0.000    0.000    0.000    0.000   3 1.05535  -21.5765 ' 3      ' 345.00   3
  220 2  285.000  100.000    0.000    0.000   3 1.00800  -22.1541 ' 3      ' 138.00   3
  221 2  171.000   70.000    0.000    0.000   3 1.00000  -22.9180 ' 3      ' 138.00   3
...
